tests/data/power_flow/pandapower/components/symmetric/pandapower-symmetric-source/pgm_sym_output.json
{
  "line": [
    {
      "id": 3,
      "energized": 1,
      "loading": 0.0019045258118127618,
      "p_from": 0.6801248285530329,
      "q_from": -34636.84180700436,
      "i_from": 1.9045258118127617,
      "s_from": 34636.841813681785,
      "p_to": -1.1259896535812253e-12,
      "q_to": -2.8422700266384066e-08,
      "i_to": 1.5627887229021982e-12,
      "s_to": 2.8422700288687585e-08
    },
    {
      "id": 6,
      "energized": 1,
      "loading": 0.0019045258118127618,
      "p_from": -1.1259896535812253e-12,
      "q_from": -2.8422700266384066e-08,
      "i_from": 1.5627887229021982e-12,
      "s_from": 2.8422700288687585e-08,
      "p_to": 0.6801248285530329,
      "q_to": -34636.84180700436,
      "i_to": 1.9045258118127617,
      "s_to": 34636.841813681785
    }
  ],
  "node": [
    {
      "id": 1,
      "energized": 1,
      "u_pu": 1.00000344647587,
      "u": 10500.036187996635,
      "u_angle": -3.44715944382273e-07
    },
    {
      "id": 2,
      "energized": 1,
      "u_pu": 1.0000348627265367,
      "u": 10500.366058628635,
      "u_angle": -3.961585783332137e-05
    },
    {
      "id": 5,
      "energized": 1,
      "u_pu": 1.00000344647587,
      "u": 10500.036187996635,
      "u_angle": -3.44715944382273e-07
    }
  ],
  "source": [
    {
      "id": 4,
      "energized": 1,
      "p": 0.6801246649243308,
      "q": -34636.8418080091,
      "i": 1.9045258118680075,
      "s": 34636.84181468652,
      "pf": 1.9635874095078383e-05
    },
    {
      "id": 7,
      "energized": 1,
      "p": 0.6801246649243308,
      "q": -34636.8418080091,
      "i": 1.9045258118680075,
      "s": 34636.84181468652,
      "pf": 1.9635874095078383e-05
    }
  ]
}